
#======================================================================
# CRYSTAL DATA
#----------------------------------------------------------------------
data_VESTA_phase_1

_chemical_name_common                  ''
_cell_length_a                         4.138000
_cell_length_b                         4.138000
_cell_length_c                         28.480000
_cell_angle_alpha                      90.000000
_cell_angle_beta                       90.000000
_cell_angle_gamma                      120.000000
_cell_volume                           422.329662
_space_group_name_H-M_alt              'P 1'
_space_group_IT_number                 1

loop_
_space_group_symop_operation_xyz
   'x, y, z'

loop_
   _atom_site_label
   _atom_site_occupancy
   _atom_site_fract_x
   _atom_site_fract_y
   _atom_site_fract_z
   _atom_site_adp_type
   _atom_site_B_iso_or_equiv
   _atom_site_type_symbol
   Se1         1.0     0.000000     0.000000     0.000000    Biso  1.000000 Se
   Se2         1.0     0.666667     0.333333     0.333333    Biso  1.000000 Se
   Se3         1.0     0.333333     0.666667     0.666667    Biso  1.000000 Se
   Se4         1.0     0.000000     0.000000     0.206000    Biso  1.000000 Se
   Se5         1.0     0.000000     0.000000     0.794000    Biso  1.000000 Se
   Se6         1.0     0.666667     0.333333     0.539333    Biso  1.000000 Se
   Se7         1.0     0.666667     0.333333     0.127333    Biso  1.000000 Se
   Se8         1.0     0.333333     0.666667     0.872667    Biso  1.000000 Se
   Se9         1.0     0.333333     0.666667     0.460667    Biso  1.000000 Se
   Bi1         1.0     0.000000     0.000000     0.399000    Biso  1.000000 Bi
   Bi2         1.0     0.000000     0.000000     0.601000    Biso  1.000000 Bi
   Bi3         1.0     0.666667     0.333333     0.732333    Biso  1.000000 Bi
   Bi4         1.0     0.666667     0.333333     0.934333    Biso  1.000000 Bi
   Bi5         1.0     0.333333     0.666667     0.065667    Biso  1.000000 Bi
   Bi6         1.0     0.333333     0.666667     0.267667    Biso  1.000000 Bi
